LAMMPS (3 Mar 2020)
# tensile deformation
#1 general
units		metal
dimension	3
atom_style      atomic
neighbor        0.3 bin

#2 structure
boundary	p p p
read_data	lammps.dat
  orthogonal box = (0 0 0) to (14.0643 16.24 105.905)
  reading atoms ...
  32 atoms
mass		1 72.64

#4 potentials
pair_style      sw
pair_coeff      * * germanene.sw Ge

velocity  all  create  300 458127641 mom yes  rot yes dist gaussian
neighbor 2.0 bin
neigh_modify delay 3
fix getEqu  all  nvt temp 300 300 .5e-1
thermo 10000
timestep .5e-3
run 100000
  update every 1 steps, delay 3 steps, check yes
Step Temp E_pair E_mol TotEng Press
0          300   -51.611169            0    -50.40905     42.98132
Averages over the last 6 of 11 rows, steps 50000 to 100000:
Temp E_pair E_mol TotEng Press
274.419 -50.3515 0 -49.2519 6.41117
Loop time of 0.790051 on 1 procs for 100000 steps with 32 atoms

unfix getEqu

reset_timestep    0
# -------------- Flux calculation in nve ---------------
fix nve all nve
#compute     myKE all ke/atom
#compute     myPE all pe/atom
#compute     myStress all stress/atom virial
#compute      jflux all heat/flux myKE myPE myStress
#fix ss all ave/correlate 5 20000 100000 vx vy vz type auto file j0jt.txt
dump lala all custom 1 v1.txt id type vx vy vz
run             100000
Step Temp E_pair E_mol TotEng Press
0     245.7219   -50.094924            0   -49.110301    8.2090365
Averages over the last 6 of 11 rows, steps 50000 to 100000:
Temp E_pair E_mol TotEng Press
284.501 -50.2503 0 -49.1103 29.1743
Loop time of 3.05492 on 1 procs for 100000 steps with 32 atoms
